Info: SIMULATION PARAMETERS:
Info: TIMESTEP               2
Info: NUMBER OF STEPS        0
Info: STEPS PER CYCLE        10
Info: PERIODIC CELL BASIS 1  74.928 0 0
Info: PERIODIC CELL BASIS 2  0 72.9361 0
Info: PERIODIC CELL BASIS 3  0 0 78.0373
Info: PERIODIC CELL CENTER   0 0 0
Info: FIRST LDB TIMESTEP     50
Info: LAST LDB TIMESTEP     -1
Info: HOM BACKGROUND SCALING 1
Info: PME BACKGROUND SCALING 1
Info: MIN ATOMS PER PATCH    40
Info: INITIAL TEMPERATURE    298.15
Info: CENTER OF MASS MOVING INITIALLY? NO
Info: DIELECTRIC             1
Info: EXCLUDE                SCALED ONE-FOUR
Info: 1-4 ELECTROSTATICS SCALED BY 1
Info: MODIFIED 1-4 VDW PARAMETERS WILL BE USED
Info: DCD FILENAME           ./output1/production.dcd
Info: DCD FREQUENCY          5000
Info: DCD FIRST STEP         5000
Info: DCD FILE WILL CONTAIN UNIT CELL DATA
Info: NO EXTENDED SYSTEM TRAJECTORY OUTPUT
Info: NO VELOCITY DCD OUTPUT
Info: NO FORCE DCD OUTPUT
Info: OUTPUT FILENAME        ./output1/production
Info: BINARY OUTPUT FILES WILL BE USED
Info: RESTART FILENAME       ./output1/production
Info: RESTART FREQUENCY      5000
Info: BINARY RESTART FILES WILL BE USED
Info: SWITCHING ACTIVE
Info: SWITCHING ON           10
Info: SWITCHING OFF          12
Info: PAIRLIST DISTANCE      14
Info: PAIRLIST SHRINK RATE   0.01
Info: PAIRLIST GROW RATE     0.01
Info: PAIRLIST TRIGGER       0.3
Info: PAIRLISTS PER CYCLE    2
Info: PAIRLISTS ENABLED
Info: MARGIN                 0.495
Info: HYDROGEN GROUP CUTOFF  2.5
Info: PATCH DIMENSION        16.995
Info: ENERGY OUTPUT STEPS    1000
Info: CROSSTERM ENERGY INCLUDED IN DIHEDRAL
Info: TIMING OUTPUT STEPS    10000
Info: LANGEVIN DYNAMICS ACTIVE
Info: LANGEVIN TEMPERATURE   298.15
Info: LANGEVIN USING BBK INTEGRATOR
Info: LANGEVIN DAMPING COEFFICIENT IS 1 INVERSE PS
Info: LANGEVIN DYNAMICS NOT APPLIED TO HYDROGENS
Info: LANGEVIN PISTON PRESSURE CONTROL ACTIVE
Info:        TARGET PRESSURE IS 1.01325 BAR
Info:     OSCILLATION PERIOD IS 200 FS
Info:             DECAY TIME IS 100 FS
Info:     PISTON TEMPERATURE IS 298.15 K
Info:       PRESSURE CONTROL IS GROUP-BASED
Info:    INITIAL STRAIN RATE IS 1.15994e-05 1.15994e-05 1.15994e-05
Info:       CELL FLUCTUATION IS ISOTROPIC
Info: PARTICLE MESH EWALD (PME) ACTIVE
Info: PME TOLERANCE               1e-06
Info: PME EWALD COEFFICIENT       0.257952
Info: PME INTERPOLATION ORDER     4
Info: PME GRID DIMENSIONS         80 80 80
Info: PME MAXIMUM GRID SPACING    1
Info: FULL ELECTROSTATIC EVALUATION FREQUENCY      5
Info: USING VERLET I (r-RESPA) MTS SCHEME.
Info: C1 SPLITTING OF LONG RANGE ELECTROSTATICS
Info: PLACING ATOMS IN PATCHES BY HYDROGEN GROUPS
Info: RIGID BONDS TO HYDROGEN : ALL
Info:         ERROR TOLERANCE : 1e-08
Info:          MAX ITERATIONS : 100
Info: RIGID WATER USING SETTLE ALGORITHM
Info: RANDOM NUMBER SEED     1547729313
Info: USE HYDROGEN BONDS?    NO
Info: COORDINATE PDB         ./004.pdb
Info: STRUCTURE FILE         ./004.psf
Info: PARAMETER file: CHARMM format!
Info: PARAMETERS             .//par_all27_prot_lipid.prm
Info: USING ARITHMETIC MEAN TO COMBINE L-J SIGMA PARAMETERS
Info: BINARY COORDINATES     ./free.coor
Info: SUMMARY OF PARAMETERS:
Info: 180 BONDS
Info: 447 ANGLES
Info: 566 DIHEDRAL
Info: 46 IMPROPER
Info: 6 CROSSTERM
Info: 114 VDW
Info: 0 VDW_PAIRS
Info: 0 NBTHOLE_PAIRS
Info: STRUCTURE SUMMARY:
Info: 43725 ATOMS
Info: 30399 BONDS
Info: 20179 ANGLES
Info: 10021 DIHEDRALS
Info: 699 IMPROPERS
Info: 272 CROSSTERMS
Info: 0 EXCLUSIONS
Info: 41730 RIGID BONDS
Info: 89445 DEGREES OF FREEDOM
Info: 15278 HYDROGEN GROUPS
Info: 4 ATOMS IN LARGEST HYDROGEN GROUP
Info: 15278 MIGRATION GROUPS
Info: 4 ATOMS IN LARGEST MIGRATION GROUP
Info: TOTAL MASS = 268771 amu
Info: TOTAL CHARGE = 2.13645e-06 e
Info: MASS DENSITY = 1.04653 g/cm^3
Info: ATOM DENSITY = 0.102528 atoms/A^3
Info: ADDED 60470 IMPLICIT EXCLUSIONS
Info: NONBONDED TABLE R-SQUARED SPACING: 0.0625
Info: NONBONDED TABLE SIZE: 769 POINTS
Info: REMOVING COM VELOCITY 0.0148506 0.0159473 0.0400445
Info: Updated CUDA force table with 4096 elements.
Info: Updated CUDA force table with 4096 elements.
Info: Updated CUDA LJ table with 114 x 114 elements.
Info: Updated CUDA LJ table with 114 x 114 elements.
Info: Found 297 unique exclusion lists needing 896 bytes
Info: Found 297 unique exclusion lists needing 896 bytes
TCL: Running for 500000000 steps
ETITLE: TS BOND ANGLE DIHED IMPRP ELECT VDW BOUNDARY MISC KINETIC TOTAL TEMP POTENTIAL TOTAL3 TEMPAVG PRESSURE GPRESSURE VOLUME PRESSAVG GPRESSAVG
ENERGY: 0 710.5509 2082.8292 928.6414 135.1363 -157338.0277 13104.7712 0.0000 0.0000 26407.5230 -113968.5758 297.1406 -140376.0987 -113884.0600 297.1406 58.5542 194.8791 426470.4187 58.5542 194.8791
ENERGY: 40000 728.0541 2072.6001 950.4048 134.6949 -157002.4054 12838.2228 0.0000 0.0000 26360.7034 -113917.7252 296.6138 -140278.4286 -113831.8673 297.0559 -118.2985 18.5475 426803.6620 -1.1735 -1.2089
ENERGY: 80000 743.2657 2144.1651 964.4849 126.5725 -157400.1780 13067.9968 0.0000 0.0000 26511.6363 -113842.0567 298.3121 -140353.6931 -113753.0638 297.9578 -121.4889 16.6301 428420.3045 0.0436 0.2697
ENERGY: 120000 785.6698 2137.4885 906.1412 137.2835 -156350.7554 12593.2474 0.0000 0.0000 26312.5418 -113478.3834 296.0719 -139790.9251 -113400.0540 299.1765 -356.1608 -263.4217 429612.5651 -0.3522 -0.4121
ENERGY: 160000 737.9599 2087.0793 950.6954 141.2711 -157341.9965 12989.7836 0.0000 0.0000 26450.5664 -113984.6407 297.6249 -140435.2071 -113897.9969 297.1459 -136.4144 -17.9285 428865.7919 11.5553 11.5250
ENERGY: 200000 744.3837 2062.4504 937.4499 136.4253 -157378.8052 13095.2535 0.0000 0.0000 26393.4065 -114009.4360 296.9817 -140402.8425 -113924.7191 297.3821 86.2381 204.5727 428099.1134 0.8325 0.8984
